Code/tensor_power_flow/tau_benchmark_results/validation_method_b_all_w1.0_wq1.0_20260720_131450.csv
name,n_bus,n_pv,n_pq,pv_ratio,rx_ratio,eta,rho,rho_diag,rho_corr,contraction,nr_converged,nr_iter,nr_time_ms,tpf_converged,tpf_outer_iter,tpf_inner_iter_total,tpf_time_ms,max_v_error,mean_v_error,max_angle_error_deg,max_pv_v_error,speedup,passed,error
sz_75_r000,74,1,73,0.013513513513513514,5.822222222222223,0.27852459450570394,1.7332418111840142,1.7332418933342542,1.7332418111840142,0.9344826526842421,True,4,18.7500000001819,False,100,100,106.26049999973475,4.792348767157506e-06,4.450198892604775e-07,0.0038002340347182972,8.185680940631102e-06,0.17645315051433696,False,
sz_75_r005,74,4,70,0.05405405405405406,5.822222222222223,0.6866087219823002,1.9888286489095035,1.9195234965428667,1.9888286489095035,0.9322795072488772,True,4,16.283699999803503,False,100,100,123.6720000006244,3.863141912807677e-06,6.663075978291072e-07,0.0029329467157666045,6.503798752666157e-06,0.13166844556343626,False,
sz_75_r010,74,8,66,0.10810810810810811,5.822222222222223,0.38079209267142916,1.9815553454049994,1.949262197550793,1.9815553454049994,0.9414710680533845,True,4,25.530300000355055,False,100,100,128.436299999521,8.693789490310522e-06,1.0724451123042318e-06,0.00800262684809061,1.6994463826636164e-05,0.19877791559279012,False,
sz_75_r020,74,15,59,0.20270270270270271,5.822222222222223,1.4596172449260172,2.021715363686441,1.9879513241445954,2.021715363686441,0.9665746819664024,True,4,18.366400000559224,False,100,100,135.30530000025465,2.9521461910375635e-05,3.1797398321072897e-06,0.15095773562907233,0.00020065453102380282,0.1357404329359209,False,
sz_75_r030,74,22,52,0.2972972972972973,5.822222222222223,4.4374435007715185,2.23266514795892,1.9744441320205421,2.23266514795892,0.9623739829847828,True,6,18.98780000010447,False,100,100,148.41989999968064,0.00014225225132857844,1.222734979359178e-05,0.4601763040059872,0.0001838316298015119,0.12793297933865558,False,
sz_75_r040,74,30,44,0.40540540540540543,5.822222222222223,2.9854589940494076,2.2182580116104162,2.185179672072743,2.2182580116104162,0.9650493669277425,True,5,17.668500000581844,False,100,100,166.82089999994787,2.733411856414847e-05,4.270944152739386e-06,0.24603933610730166,0.00022609981087562403,0.10591298812431395,False,
sz_75_r050,74,38,36,0.5135135135135135,5.822222222222223,7.231158945942072,2.274082210562346,2.094058275661909,2.274082210562346,0.9928383247588631,True,6,18.314400000235764,False,100,100,162.63489999982994,0.00018283440889099722,2.7943158108559522e-05,1.5984858300088085,0.003924824013646466,0.11261051594863658,False,
sz_75_r060,74,45,29,0.6081081081081081,5.822222222222223,4.548795625656279,2.2119079047762797,2.132026398237899,2.2119079047762797,0.977292927584676,True,5,20.68050000070798,False,100,100,191.55830000090646,7.784261141385862e-05,6.952430606824981e-06,0.693130311469333,0.0008303875633199898,0.10795930012226106,False,
